LAMMPS (29 Oct 2020)
# Model parameters
units               metal
dimension           3
boundary            p p p
neighbor            0.3 bin
neigh_modify        every 5 delay 0

# Define variables
variable		    dt equal 0.001
variable		    T equal 300
variable		    srate equal 0.005
timestep            0.001

# Read graphene data
read_data           data.0.25.lmp
Reading data file ...
  orthogonal box = (0.0000000 0.0000000 0.0000000) to (98.400000 85.216900 20.000000)
  reading atoms ...
  2400 atoms

# read_restart relax.equil

# delete_atoms porosity all 0.05 12345

# Set potential/force field
pair_style          airebo 3.0 0 0
pair_coeff          * * CH.airebo C
Reading airebo potential file CH.airebo with DATE: 2011-10-25

# Minimize energy and force
min_style           cg
minimize            1e-10 1e-10 5000 5000
  update every 1 steps, delay 0 steps, check yes
Step Temp E_pair E_mol TotEng Press
0            0   -14224.048            0   -14224.048   -11883.422
Loop time of 0.187581 on 4 procs for 50 steps with 2400 atoms

Minimization stats:
  Stopping criterion = linesearch alpha is zero
  Energy initial, next-to-last, final =
  Force two-norm initial, final = 117.68915 21.664182
  Force max component initial, final = 5.4976484 5.2864826
  Final line search alpha, max atom move = 1.7617056e-11 9.3132257e-11
  Iterations, force evaluations = 50 119

write_data          graphene_min.xyz
System init for write_data ...
# dump		        1 all custom 100 graphene_min.xyz id type x y z
# undump            1

# Define computes
# compute 	        1 all stress/atom NULL
# compute           2 all reduce sum c_1[1] c_1[2]

# Initialize temperature
reset_timestep	    0
velocity		    all create 300 123456 dist gaussian
fix				    1 all npt temp 300 300 $(100*dt) iso 0 0 $(1000*dt)
fix				    1 all npt temp 300 300 0.10000000000000000555 iso 0 0 $(1000*dt)
fix				    1 all npt temp 300 300 0.10000000000000000555 iso 0 0 1
dump			    1 all custom 5000 graphene_npt.xyz id type x y z
thermo 	            2000
run				    20000 # run 10 ps for relaxation
Step Temp E_pair E_mol TotEng Press Volume
0          300   -14840.055            0   -14747.026    4722.4095    167706.86
Averages over the last 6 of 11 rows, steps 10000 to 20000:
Temp E_pair E_mol TotEng Press Volume
301.335 -15802.9 0 -15709.5 -22.929 149316
Loop time of 33.61 on 4 procs for 20000 steps with 2400 atoms

unfix			    1
undump 			    1

# write_restart relax.equil

# Define variables
variable		    tmpx equal "lx"
variable            tmpy equal "ly"
variable 		    lx0 equal 94.8327332308887
variable 		    ly0 equal 82.1275560882614
variable 		    strainx equal "(lx - v_lx0)/v_lx0"
variable 		    stressx equal "-pxx/10000*lz/3.35" # Bar-->GPa
variable 		    stressy equal "-pyy/10000*lz/3.35" # Bar-->GPa

# Deform: tensile strain
reset_timestep 		0
fix 				1 all npt temp 300 300 $(100*dt) y 0 0 $(1000*dt) z 0 0 $(1000*dt)
fix 				1 all npt temp 300 300 0.10000000000000000555 y 0 0 $(1000*dt) z 0 0 $(1000*dt)
fix 				1 all npt temp 300 300 0.10000000000000000555 y 0 0 1 z 0 0 $(1000*dt)
fix 				1 all npt temp 300 300 0.10000000000000000555 y 0 0 1 z 0 0 1
fix					2 all deform 100 x erate 0.005 remap x units box
dump				1 all custom 100 graphene_strain.xyz id type x y z

run 				50000
Step Temp E_pair E_mol TotEng Press Volume
0     296.3355   -15816.445            0   -15724.553     64.53349    150120.61
Averages over the last 13 of 26 rows, steps 26000 to 50000:
Temp E_pair E_mol TotEng Press Volume
305.623 -15808 0 -15713.3 -10742.4 98265.1
Loop time of 88.9771 on 4 procs for 50000 steps with 2400 atoms

# print 			    "Simulation DONE !"
